[board]
type=System
children=apicbridge bridge cache_hierarchy clk_domain dvfs_handler iobus memory pc processor workload
auto_unlink_shared_backstore=false
cache_line_size=64
eventq_index=0
exit_on_work_items=true
external_memory_ranges=
init_param=0
m5ops_base=4294901760
mem_mode=timing
mem_ranges=0:3221225472 3221225472:3222274048
memories=board.memory.mem_ctrl0.dram board.memory.mem_ctrl1.dram
mmap_using_noreserve=false
multi_thread=false
num_work_ids=16
readfile=
redirect_paths=
shadow_rom_ranges=
shared_backstore=
symbolfile=
thermal_components=
thermal_model=Null
work_begin_ckpt_count=0
work_begin_cpu_id_exit=-1
work_begin_exit_count=0
work_cpus_ckpt_count=0
work_end_ckpt_count=0
work_end_exit_count=0
work_item_id=-1
workload=board.workload
system_port=board.cache_hierarchy.membus.cpu_side_ports[1]

[board.apicbridge]
type=Bridge
children=power_state
clk_domain=board.clk_domain
delay=50000
eventq_index=0
power_model=
power_state=board.apicbridge.power_state
ranges=11529215046068469760:11529215046068477951
req_size=16
resp_size=16
cpu_side_port=board.iobus.mem_side_ports[0]
mem_side_port=board.cache_hierarchy.membus.cpu_side_ports[0]

[board.apicbridge.power_state]
type=PowerState
clk_gate_bins=20
clk_gate_max=1000000000000
clk_gate_min=1000
default_state=UNDEFINED
eventq_index=0
leaders=
possible_states=

[board.bridge]
type=Bridge
children=power_state
clk_domain=board.clk_domain
delay=50000
eventq_index=0
power_model=
power_state=board.bridge.power_state
ranges=3221225472:4294901760 9223372036854775808:11529215046068469759 13835058055282163712:18446744073709551615
req_size=16
resp_size=16
cpu_side_port=board.cache_hierarchy.membus.mem_side_ports[0]
mem_side_port=board.iobus.cpu_side_ports[0]

[board.bridge.power_state]
type=PowerState
clk_gate_bins=20
clk_gate_max=1000000000000
clk_gate_min=1000
default_state=UNDEFINED
eventq_index=0
leaders=
possible_states=

[board.cache_hierarchy]
type=SubSystem
children=dptw_caches0 dptw_caches1 iocache iptw_caches0 iptw_caches1 l1dcaches0 l1dcaches1 l1icaches0 l1icaches1 l2bus l2cache membus
eventq_index=0
thermal_domain=Null

[board.cache_hierarchy.dptw_caches0]
type=Cache
children=power_state replacement_policy tags
addr_ranges=0:18446744073709551615
assoc=4
clk_domain=board.clk_domain
clusivity=mostly_incl
compressor=Null
data_latency=1
demand_mshr_reserve=1
eventq_index=0
is_read_only=false
max_miss_count=0
move_contractions=true
mshrs=20
partitioning_manager=Null
power_model=
power_state=board.cache_hierarchy.dptw_caches0.power_state
prefetcher=Null
replace_expansions=true
replacement_policy=board.cache_hierarchy.dptw_caches0.replacement_policy
response_latency=1
sequential_access=false
size=8192
system=board
tag_latency=1
tags=board.cache_hierarchy.dptw_caches0.tags
tgts_per_mshr=12
warmup_percentage=0
write_allocator=Null
write_buffers=8
writeback_clean=false
cpu_side=board.processor.cores0.core.mmu.dtb.walker.port
mem_side=board.cache_hierarchy.l2bus.cpu_side_ports[2]

[board.cache_hierarchy.dptw_caches0.power_state]
type=PowerState
clk_gate_bins=20
clk_gate_max=1000000000000
clk_gate_min=1000
default_state=UNDEFINED
eventq_index=0
leaders=
possible_states=

[board.cache_hierarchy.dptw_caches0.replacement_policy]
type=LRURP
eventq_index=0

[board.cache_hierarchy.dptw_caches0.tags]
type=BaseSetAssoc
children=indexing_policy power_state
assoc=4
block_size=64
clk_domain=board.clk_domain
entry_size=64
eventq_index=0
indexing_policy=board.cache_hierarchy.dptw_caches0.tags.indexing_policy
partitioning_manager=Null
power_model=
power_state=board.cache_hierarchy.dptw_caches0.tags.power_state
replacement_policy=board.cache_hierarchy.dptw_caches0.replacement_policy
sequential_access=false
size=8192
system=board
tag_latency=1
warmup_percentage=0

[board.cache_hierarchy.dptw_caches0.tags.indexing_policy]
type=TaggedSetAssociative
assoc=4
entry_size=64
eventq_index=0
size=8192

[board.cache_hierarchy.dptw_caches0.tags.power_state]
type=PowerState
clk_gate_bins=20
clk_gate_max=1000000000000
clk_gate_min=1000
default_state=UNDEFINED
eventq_index=0
leaders=
possible_states=

[board.cache_hierarchy.dptw_caches1]
type=Cache
children=power_state replacement_policy tags
addr_ranges=0:18446744073709551615
assoc=4
clk_domain=board.clk_domain
clusivity=mostly_incl
compressor=Null
data_latency=1
demand_mshr_reserve=1
eventq_index=0
is_read_only=false
max_miss_count=0
move_contractions=true
mshrs=20
partitioning_manager=Null
power_model=
power_state=board.cache_hierarchy.dptw_caches1.power_state
prefetcher=Null
replace_expansions=true
replacement_policy=board.cache_hierarchy.dptw_caches1.replacement_policy
response_latency=1
sequential_access=false
size=8192
system=board
tag_latency=1
tags=board.cache_hierarchy.dptw_caches1.tags
tgts_per_mshr=12
warmup_percentage=0
write_allocator=Null
write_buffers=8
writeback_clean=false
cpu_side=board.processor.cores1.core.mmu.dtb.walker.port
mem_side=board.cache_hierarchy.l2bus.cpu_side_ports[6]

[board.cache_hierarchy.dptw_caches1.power_state]
type=PowerState
clk_gate_bins=20
clk_gate_max=1000000000000
clk_gate_min=1000
default_state=UNDEFINED
eventq_index=0
leaders=
possible_states=

[board.cache_hierarchy.dptw_caches1.replacement_policy]
type=LRURP
eventq_index=0

[board.cache_hierarchy.dptw_caches1.tags]
type=BaseSetAssoc
children=indexing_policy power_state
assoc=4
block_size=64
clk_domain=board.clk_domain
entry_size=64
eventq_index=0
indexing_policy=board.cache_hierarchy.dptw_caches1.tags.indexing_policy
partitioning_manager=Null
power_model=
power_state=board.cache_hierarchy.dptw_caches1.tags.power_state
replacement_policy=board.cache_hierarchy.dptw_caches1.replacement_policy
sequential_access=false
size=8192
system=board
tag_latency=1
warmup_percentage=0

[board.cache_hierarchy.dptw_caches1.tags.indexing_policy]
type=TaggedSetAssociative
assoc=4
entry_size=64
eventq_index=0
size=8192

[board.cache_hierarchy.dptw_caches1.tags.power_state]
type=PowerState
clk_gate_bins=20
clk_gate_max=1000000000000
clk_gate_min=1000
default_state=UNDEFINED
eventq_index=0
leaders=
possible_states=

[board.cache_hierarchy.iocache]
type=Cache
children=power_state replacement_policy tags
addr_ranges=0:3221225472 3221225472:3222274048
assoc=8
clk_domain=board.clk_domain
clusivity=mostly_incl
compressor=Null
data_latency=50
demand_mshr_reserve=1
eventq_index=0
is_read_only=false
max_miss_count=0
move_contractions=true
mshrs=20
partitioning_manager=Null
power_model=
power_state=board.cache_hierarchy.iocache.power_state
prefetcher=Null
replace_expansions=true
replacement_policy=board.cache_hierarchy.iocache.replacement_policy
response_latency=50
sequential_access=false
size=1024
system=board
tag_latency=50
tags=board.cache_hierarchy.iocache.tags
tgts_per_mshr=12
warmup_percentage=0
write_allocator=Null
write_buffers=8
writeback_clean=false
cpu_side=board.iobus.mem_side_ports[15]
mem_side=board.cache_hierarchy.membus.cpu_side_ports[2]

[board.cache_hierarchy.iocache.power_state]
type=PowerState
clk_gate_bins=20
clk_gate_max=1000000000000
clk_gate_min=1000
default_state=UNDEFINED
eventq_index=0
leaders=
possible_states=

[board.cache_hierarchy.iocache.replacement_policy]
type=LRURP
eventq_index=0

[board.cache_hierarchy.iocache.tags]
type=BaseSetAssoc
children=indexing_policy power_state
assoc=8
block_size=64
clk_domain=board.clk_domain
entry_size=64
eventq_index=0
indexing_policy=board.cache_hierarchy.iocache.tags.indexing_policy
partitioning_manager=Null
power_model=
power_state=board.cache_hierarchy.iocache.tags.power_state
replacement_policy=board.cache_hierarchy.iocache.replacement_policy
sequential_access=false
size=1024
system=board
tag_latency=50
warmup_percentage=0

[board.cache_hierarchy.iocache.tags.indexing_policy]
type=TaggedSetAssociative
assoc=8
entry_size=64
eventq_index=0
size=1024

[board.cache_hierarchy.iocache.tags.power_state]
type=PowerState
clk_gate_bins=20
clk_gate_max=1000000000000
clk_gate_min=1000
default_state=UNDEFINED
eventq_index=0
leaders=
possible_states=

[board.cache_hierarchy.iptw_caches0]
type=Cache
children=power_state replacement_policy tags
addr_ranges=0:18446744073709551615
assoc=4
clk_domain=board.clk_domain
clusivity=mostly_incl
compressor=Null
data_latency=1
demand_mshr_reserve=1
eventq_index=0
is_read_only=false
max_miss_count=0
move_contractions=true
mshrs=20
partitioning_manager=Null
power_model=
power_state=board.cache_hierarchy.iptw_caches0.power_state
prefetcher=Null
replace_expansions=true
replacement_policy=board.cache_hierarchy.iptw_caches0.replacement_policy
response_latency=1
sequential_access=false
size=8192
system=board
tag_latency=1
tags=board.cache_hierarchy.iptw_caches0.tags
tgts_per_mshr=12
warmup_percentage=0
write_allocator=Null
write_buffers=8
writeback_clean=false
cpu_side=board.processor.cores0.core.mmu.itb.walker.port
mem_side=board.cache_hierarchy.l2bus.cpu_side_ports[3]

[board.cache_hierarchy.iptw_caches0.power_state]
type=PowerState
clk_gate_bins=20
clk_gate_max=1000000000000
clk_gate_min=1000
default_state=UNDEFINED
eventq_index=0
leaders=
possible_states=

[board.cache_hierarchy.iptw_caches0.replacement_policy]
type=LRURP
eventq_index=0

[board.cache_hierarchy.iptw_caches0.tags]
type=BaseSetAssoc
children=indexing_policy power_state
assoc=4
block_size=64
clk_domain=board.clk_domain
entry_size=64
eventq_index=0
indexing_policy=board.cache_hierarchy.iptw_caches0.tags.indexing_policy
partitioning_manager=Null
power_model=
power_state=board.cache_hierarchy.iptw_caches0.tags.power_state
replacement_policy=board.cache_hierarchy.iptw_caches0.replacement_policy
sequential_access=false
size=8192
system=board
tag_latency=1
warmup_percentage=0

[board.cache_hierarchy.iptw_caches0.tags.indexing_policy]
type=TaggedSetAssociative
assoc=4
entry_size=64
eventq_index=0
size=8192

[board.cache_hierarchy.iptw_caches0.tags.power_state]
type=PowerState
clk_gate_bins=20
clk_gate_max=1000000000000
clk_gate_min=1000
default_state=UNDEFINED
eventq_index=0
leaders=
possible_states=

[board.cache_hierarchy.iptw_caches1]
type=Cache
children=power_state replacement_policy tags
addr_ranges=0:18446744073709551615
assoc=4
clk_domain=board.clk_domain
clusivity=mostly_incl
compressor=Null
data_latency=1
demand_mshr_reserve=1
eventq_index=0
is_read_only=false
max_miss_count=0
move_contractions=true
mshrs=20
partitioning_manager=Null
power_model=
power_state=board.cache_hierarchy.iptw_caches1.power_state
prefetcher=Null
replace_expansions=true
replacement_policy=board.cache_hierarchy.iptw_caches1.replacement_policy
response_latency=1
sequential_access=false
size=8192
system=board
tag_latency=1
tags=board.cache_hierarchy.iptw_caches1.tags
tgts_per_mshr=12
warmup_percentage=0
write_allocator=Null
write_buffers=8
writeback_clean=false
cpu_side=board.processor.cores1.core.mmu.itb.walker.port
mem_side=board.cache_hierarchy.l2bus.cpu_side_ports[7]

[board.cache_hierarchy.iptw_caches1.power_state]
type=PowerState
clk_gate_bins=20
clk_gate_max=1000000000000
clk_gate_min=1000
default_state=UNDEFINED
eventq_index=0
leaders=
possible_states=

[board.cache_hierarchy.iptw_caches1.replacement_policy]
type=LRURP
eventq_index=0

[board.cache_hierarchy.iptw_caches1.tags]
type=BaseSetAssoc
children=indexing_policy power_state
assoc=4
block_size=64
clk_domain=board.clk_domain
entry_size=64
eventq_index=0
indexing_policy=board.cache_hierarchy.iptw_caches1.tags.indexing_policy
partitioning_manager=Null
power_model=
power_state=board.cache_hierarchy.iptw_caches1.tags.power_state
replacement_policy=board.cache_hierarchy.iptw_caches1.replacement_policy
sequential_access=false
size=8192
system=board
tag_latency=1
warmup_percentage=0

[board.cache_hierarchy.iptw_caches1.tags.indexing_policy]
type=TaggedSetAssociative
assoc=4
entry_size=64
eventq_index=0
size=8192

[board.cache_hierarchy.iptw_caches1.tags.power_state]
type=PowerState
clk_gate_bins=20
clk_gate_max=1000000000000
clk_gate_min=1000
default_state=UNDEFINED
eventq_index=0
leaders=
possible_states=

[board.cache_hierarchy.l1dcaches0]
type=Cache
children=power_state prefetcher replacement_policy tags
addr_ranges=0:18446744073709551615
assoc=8
clk_domain=board.clk_domain
clusivity=mostly_incl
compressor=Null
data_latency=1
demand_mshr_reserve=1
eventq_index=0
is_read_only=false
max_miss_count=0
move_contractions=true
mshrs=16
partitioning_manager=Null
power_model=
power_state=board.cache_hierarchy.l1dcaches0.power_state
prefetcher=board.cache_hierarchy.l1dcaches0.prefetcher
replace_expansions=true
replacement_policy=board.cache_hierarchy.l1dcaches0.replacement_policy
response_latency=1
sequential_access=false
size=65536
system=board
tag_latency=1
tags=board.cache_hierarchy.l1dcaches0.tags
tgts_per_mshr=20
warmup_percentage=0
write_allocator=Null
write_buffers=8
writeback_clean=false
cpu_side=board.processor.cores0.core.dcache_port
mem_side=board.cache_hierarchy.l2bus.cpu_side_ports[1]

[board.cache_hierarchy.l1dcaches0.power_state]
type=PowerState
clk_gate_bins=20
clk_gate_max=1000000000000
clk_gate_min=1000
default_state=UNDEFINED
eventq_index=0
leaders=
possible_states=

[board.cache_hierarchy.l1dcaches0.prefetcher]
type=StridePrefetcher
children=power_state table_indexing_policy table_replacement_policy
block_size=64
cache_snoop=false
clk_domain=board.clk_domain
confidence_counter_bits=3
confidence_threshold=50
degree=4
distance=0
eventq_index=0
initial_confidence=4
latency=1
max_prefetch_requests_with_pending_translation=32
on_data=true
on_inst=false
on_miss=false
on_read=true
on_write=true
page_bytes=4096
power_model=
power_state=board.cache_hierarchy.l1dcaches0.prefetcher.power_state
prefetch_on_access=false
prefetch_on_pf_hit=true
queue_filter=true
queue_size=32
queue_squash=true
sys=board
table_assoc=4
table_entries=64
table_indexing_policy=board.cache_hierarchy.l1dcaches0.prefetcher.table_indexing_policy
table_replacement_policy=board.cache_hierarchy.l1dcaches0.prefetcher.table_replacement_policy
tag_prefetch=true
throttle_control_percentage=0
use_cache_line_address=true
use_requestor_id=true
use_virtual_addresses=false

[board.cache_hierarchy.l1dcaches0.prefetcher.power_state]
type=PowerState
clk_gate_bins=20
clk_gate_max=1000000000000
clk_gate_min=1000
default_state=UNDEFINED
eventq_index=0
leaders=
possible_states=

[board.cache_hierarchy.l1dcaches0.prefetcher.table_indexing_policy]
type=StridePrefetcherHashedSetAssociative
assoc=4
entry_size=1
eventq_index=0
size=64

[board.cache_hierarchy.l1dcaches0.prefetcher.table_replacement_policy]
type=RandomRP
eventq_index=0

[board.cache_hierarchy.l1dcaches0.replacement_policy]
type=LRURP
eventq_index=0

[board.cache_hierarchy.l1dcaches0.tags]
type=BaseSetAssoc
children=indexing_policy power_state
assoc=8
block_size=64
clk_domain=board.clk_domain
entry_size=64
eventq_index=0
indexing_policy=board.cache_hierarchy.l1dcaches0.tags.indexing_policy
partitioning_manager=Null
power_model=
power_state=board.cache_hierarchy.l1dcaches0.tags.power_state
replacement_policy=board.cache_hierarchy.l1dcaches0.replacement_policy
sequential_access=false
size=65536
system=board
tag_latency=1
warmup_percentage=0

[board.cache_hierarchy.l1dcaches0.tags.indexing_policy]
type=TaggedSetAssociative
assoc=8
entry_size=64
eventq_index=0
size=65536

[board.cache_hierarchy.l1dcaches0.tags.power_state]
type=PowerState
clk_gate_bins=20
clk_gate_max=1000000000000
clk_gate_min=1000
default_state=UNDEFINED
eventq_index=0
leaders=
possible_states=

[board.cache_hierarchy.l1dcaches1]
type=Cache
children=power_state prefetcher replacement_policy tags
addr_ranges=0:18446744073709551615
assoc=8
clk_domain=board.clk_domain
clusivity=mostly_incl
compressor=Null
data_latency=1
demand_mshr_reserve=1
eventq_index=0
is_read_only=false
max_miss_count=0
move_contractions=true
mshrs=16
partitioning_manager=Null
power_model=
power_state=board.cache_hierarchy.l1dcaches1.power_state
prefetcher=board.cache_hierarchy.l1dcaches1.prefetcher
replace_expansions=true
replacement_policy=board.cache_hierarchy.l1dcaches1.replacement_policy
response_latency=1
sequential_access=false
size=65536
system=board
tag_latency=1
tags=board.cache_hierarchy.l1dcaches1.tags
tgts_per_mshr=20
warmup_percentage=0
write_allocator=Null
write_buffers=8
writeback_clean=false
cpu_side=board.processor.cores1.core.dcache_port
mem_side=board.cache_hierarchy.l2bus.cpu_side_ports[5]

[board.cache_hierarchy.l1dcaches1.power_state]
type=PowerState
clk_gate_bins=20
clk_gate_max=1000000000000
clk_gate_min=1000
default_state=UNDEFINED
eventq_index=0
leaders=
possible_states=

[board.cache_hierarchy.l1dcaches1.prefetcher]
type=StridePrefetcher
children=power_state table_indexing_policy table_replacement_policy
block_size=64
cache_snoop=false
clk_domain=board.clk_domain
confidence_counter_bits=3
confidence_threshold=50
degree=4
distance=0
eventq_index=0
initial_confidence=4
latency=1
max_prefetch_requests_with_pending_translation=32
on_data=true
on_inst=false
on_miss=false
on_read=true
on_write=true
page_bytes=4096
power_model=
power_state=board.cache_hierarchy.l1dcaches1.prefetcher.power_state
prefetch_on_access=false
prefetch_on_pf_hit=true
queue_filter=true
queue_size=32
queue_squash=true
sys=board
table_assoc=4
table_entries=64
table_indexing_policy=board.cache_hierarchy.l1dcaches1.prefetcher.table_indexing_policy
table_replacement_policy=board.cache_hierarchy.l1dcaches1.prefetcher.table_replacement_policy
tag_prefetch=true
throttle_control_percentage=0
use_cache_line_address=true
use_requestor_id=true
use_virtual_addresses=false

[board.cache_hierarchy.l1dcaches1.prefetcher.power_state]
type=PowerState
clk_gate_bins=20
clk_gate_max=1000000000000
clk_gate_min=1000
default_state=UNDEFINED
eventq_index=0
leaders=
possible_states=

[board.cache_hierarchy.l1dcaches1.prefetcher.table_indexing_policy]
type=StridePrefetcherHashedSetAssociative
assoc=4
entry_size=1
eventq_index=0
size=64

[board.cache_hierarchy.l1dcaches1.prefetcher.table_replacement_policy]
type=RandomRP
eventq_index=0

[board.cache_hierarchy.l1dcaches1.replacement_policy]
type=LRURP
eventq_index=0

[board.cache_hierarchy.l1dcaches1.tags]
type=BaseSetAssoc
children=indexing_policy power_state
assoc=8
block_size=64
clk_domain=board.clk_domain
entry_size=64
eventq_index=0
indexing_policy=board.cache_hierarchy.l1dcaches1.tags.indexing_policy
partitioning_manager=Null
power_model=
power_state=board.cache_hierarchy.l1dcaches1.tags.power_state
replacement_policy=board.cache_hierarchy.l1dcaches1.replacement_policy
sequential_access=false
size=65536
system=board
tag_latency=1
warmup_percentage=0

[board.cache_hierarchy.l1dcaches1.tags.indexing_policy]
type=TaggedSetAssociative
assoc=8
entry_size=64
eventq_index=0
size=65536

[board.cache_hierarchy.l1dcaches1.tags.power_state]
type=PowerState
clk_gate_bins=20
clk_gate_max=1000000000000
clk_gate_min=1000
default_state=UNDEFINED
eventq_index=0
leaders=
possible_states=

[board.cache_hierarchy.l1icaches0]
type=Cache
children=power_state prefetcher replacement_policy tags
addr_ranges=0:18446744073709551615
assoc=8
clk_domain=board.clk_domain
clusivity=mostly_incl
compressor=Null
data_latency=1
demand_mshr_reserve=1
eventq_index=0
is_read_only=false
max_miss_count=0
move_contractions=true
mshrs=16
partitioning_manager=Null
power_model=
power_state=board.cache_hierarchy.l1icaches0.power_state
prefetcher=board.cache_hierarchy.l1icaches0.prefetcher
replace_expansions=true
replacement_policy=board.cache_hierarchy.l1icaches0.replacement_policy
response_latency=1
sequential_access=false
size=65536
system=board
tag_latency=1
tags=board.cache_hierarchy.l1icaches0.tags
tgts_per_mshr=20
warmup_percentage=0
write_allocator=Null
write_buffers=8
writeback_clean=false
cpu_side=board.processor.cores0.core.icache_port
mem_side=board.cache_hierarchy.l2bus.cpu_side_ports[0]

[board.cache_hierarchy.l1icaches0.power_state]
type=PowerState
clk_gate_bins=20
clk_gate_max=1000000000000
clk_gate_min=1000
default_state=UNDEFINED
eventq_index=0
leaders=
possible_states=

[board.cache_hierarchy.l1icaches0.prefetcher]
type=StridePrefetcher
children=power_state table_indexing_policy table_replacement_policy
block_size=64
cache_snoop=false
clk_domain=board.clk_domain
confidence_counter_bits=3
confidence_threshold=50
degree=4
distance=0
eventq_index=0
initial_confidence=4
latency=1
max_prefetch_requests_with_pending_translation=32
on_data=true
on_inst=false
on_miss=false
on_read=true
on_write=true
page_bytes=4096
power_model=
power_state=board.cache_hierarchy.l1icaches0.prefetcher.power_state
prefetch_on_access=false
prefetch_on_pf_hit=true
queue_filter=true
queue_size=32
queue_squash=true
sys=board
table_assoc=4
table_entries=64
table_indexing_policy=board.cache_hierarchy.l1icaches0.prefetcher.table_indexing_policy
table_replacement_policy=board.cache_hierarchy.l1icaches0.prefetcher.table_replacement_policy
tag_prefetch=true
throttle_control_percentage=0
use_cache_line_address=true
use_requestor_id=true
use_virtual_addresses=false

[board.cache_hierarchy.l1icaches0.prefetcher.power_state]
type=PowerState
clk_gate_bins=20
clk_gate_max=1000000000000
clk_gate_min=1000
default_state=UNDEFINED
eventq_index=0
leaders=
possible_states=

[board.cache_hierarchy.l1icaches0.prefetcher.table_indexing_policy]
type=StridePrefetcherHashedSetAssociative
assoc=4
entry_size=1
eventq_index=0
size=64

[board.cache_hierarchy.l1icaches0.prefetcher.table_replacement_policy]
type=RandomRP
eventq_index=0

[board.cache_hierarchy.l1icaches0.replacement_policy]
type=LRURP
eventq_index=0

[board.cache_hierarchy.l1icaches0.tags]
type=BaseSetAssoc
children=indexing_policy power_state
assoc=8
block_size=64
clk_domain=board.clk_domain
entry_size=64
eventq_index=0
indexing_policy=board.cache_hierarchy.l1icaches0.tags.indexing_policy
partitioning_manager=Null
power_model=
power_state=board.cache_hierarchy.l1icaches0.tags.power_state
replacement_policy=board.cache_hierarchy.l1icaches0.replacement_policy
sequential_access=false
size=65536
system=board
tag_latency=1
warmup_percentage=0

[board.cache_hierarchy.l1icaches0.tags.indexing_policy]
type=TaggedSetAssociative
assoc=8
entry_size=64
eventq_index=0
size=65536

[board.cache_hierarchy.l1icaches0.tags.power_state]
type=PowerState
clk_gate_bins=20
clk_gate_max=1000000000000
clk_gate_min=1000
default_state=UNDEFINED
eventq_index=0
leaders=
possible_states=

[board.cache_hierarchy.l1icaches1]
type=Cache
children=power_state prefetcher replacement_policy tags
addr_ranges=0:18446744073709551615
assoc=8
clk_domain=board.clk_domain
clusivity=mostly_incl
compressor=Null
data_latency=1
demand_mshr_reserve=1
eventq_index=0
is_read_only=false
max_miss_count=0
move_contractions=true
mshrs=16
partitioning_manager=Null
power_model=
power_state=board.cache_hierarchy.l1icaches1.power_state
prefetcher=board.cache_hierarchy.l1icaches1.prefetcher
replace_expansions=true
replacement_policy=board.cache_hierarchy.l1icaches1.replacement_policy
response_latency=1
sequential_access=false
size=65536
system=board
tag_latency=1
tags=board.cache_hierarchy.l1icaches1.tags
tgts_per_mshr=20
warmup_percentage=0
write_allocator=Null
write_buffers=8
writeback_clean=false
cpu_side=board.processor.cores1.core.icache_port
mem_side=board.cache_hierarchy.l2bus.cpu_side_ports[4]

[board.cache_hierarchy.l1icaches1.power_state]
type=PowerState
clk_gate_bins=20
clk_gate_max=1000000000000
clk_gate_min=1000
default_state=UNDEFINED
eventq_index=0
leaders=
possible_states=

[board.cache_hierarchy.l1icaches1.prefetcher]
type=StridePrefetcher
children=power_state table_indexing_policy table_replacement_policy
block_size=64
cache_snoop=false
clk_domain=board.clk_domain
confidence_counter_bits=3
confidence_threshold=50
degree=4
distance=0
eventq_index=0
initial_confidence=4
latency=1
max_prefetch_requests_with_pending_translation=32
on_data=true
on_inst=false
on_miss=false
on_read=true
on_write=true
page_bytes=4096
power_model=
power_state=board.cache_hierarchy.l1icaches1.prefetcher.power_state
prefetch_on_access=false
prefetch_on_pf_hit=true
queue_filter=true
queue_size=32
queue_squash=true
sys=board
table_assoc=4
table_entries=64
table_indexing_policy=board.cache_hierarchy.l1icaches1.prefetcher.table_indexing_policy
table_replacement_policy=board.cache_hierarchy.l1icaches1.prefetcher.table_replacement_policy
tag_prefetch=true
throttle_control_percentage=0
use_cache_line_address=true
use_requestor_id=true
use_virtual_addresses=false

[board.cache_hierarchy.l1icaches1.prefetcher.power_state]
type=PowerState
clk_gate_bins=20
clk_gate_max=1000000000000
clk_gate_min=1000
default_state=UNDEFINED
eventq_index=0
leaders=
possible_states=

[board.cache_hierarchy.l1icaches1.prefetcher.table_indexing_policy]
type=StridePrefetcherHashedSetAssociative
assoc=4
entry_size=1
eventq_index=0
size=64

[board.cache_hierarchy.l1icaches1.prefetcher.table_replacement_policy]
type=RandomRP
eventq_index=0

[board.cache_hierarchy.l1icaches1.replacement_policy]
type=LRURP
eventq_index=0

[board.cache_hierarchy.l1icaches1.tags]
type=BaseSetAssoc
children=indexing_policy power_state
assoc=8
block_size=64
clk_domain=board.clk_domain
entry_size=64
eventq_index=0
indexing_policy=board.cache_hierarchy.l1icaches1.tags.indexing_policy
partitioning_manager=Null
power_model=
power_state=board.cache_hierarchy.l1icaches1.tags.power_state
replacement_policy=board.cache_hierarchy.l1icaches1.replacement_policy
sequential_access=false
size=65536
system=board
tag_latency=1
warmup_percentage=0

[board.cache_hierarchy.l1icaches1.tags.indexing_policy]
type=TaggedSetAssociative
assoc=8
entry_size=64
eventq_index=0
size=65536

[board.cache_hierarchy.l1icaches1.tags.power_state]
type=PowerState
clk_gate_bins=20
clk_gate_max=1000000000000
clk_gate_min=1000
default_state=UNDEFINED
eventq_index=0
leaders=
possible_states=

[board.cache_hierarchy.l2bus]
type=CoherentXBar
children=power_state snoop_filter
clk_domain=board.clk_domain
eventq_index=0
forward_latency=0
frontend_latency=1
header_latency=1
max_outstanding_snoops=512
max_routing_table_size=512
point_of_coherency=false
point_of_unification=true
power_model=
power_state=board.cache_hierarchy.l2bus.power_state
response_latency=1
snoop_filter=board.cache_hierarchy.l2bus.snoop_filter
snoop_response_latency=1
system=board
use_default_range=false
width=32
cpu_side_ports=board.cache_hierarchy.l1icaches0.mem_side board.cache_hierarchy.l1dcaches0.mem_side board.cache_hierarchy.dptw_caches0.mem_side board.cache_hierarchy.iptw_caches0.mem_side board.cache_hierarchy.l1icaches1.mem_side board.cache_hierarchy.l1dcaches1.mem_side board.cache_hierarchy.dptw_caches1.mem_side board.cache_hierarchy.iptw_caches1.mem_side
mem_side_ports=board.cache_hierarchy.l2cache.cpu_side

[board.cache_hierarchy.l2bus.power_state]
type=PowerState
clk_gate_bins=20
clk_gate_max=1000000000000
clk_gate_min=1000
default_state=UNDEFINED
eventq_index=0
leaders=
possible_states=

[board.cache_hierarchy.l2bus.snoop_filter]
type=SnoopFilter
eventq_index=0
lookup_latency=0
max_capacity=8388608
system=board

[board.cache_hierarchy.l2cache]
type=Cache
children=power_state prefetcher replacement_policy tags
addr_ranges=0:18446744073709551615
assoc=16
clk_domain=board.clk_domain
clusivity=mostly_incl
compressor=Null
data_latency=10
demand_mshr_reserve=1
eventq_index=0
is_read_only=false
max_miss_count=0
move_contractions=true
mshrs=20
partitioning_manager=Null
power_model=
power_state=board.cache_hierarchy.l2cache.power_state
prefetcher=board.cache_hierarchy.l2cache.prefetcher
replace_expansions=true
replacement_policy=board.cache_hierarchy.l2cache.replacement_policy
response_latency=1
sequential_access=false
size=8388608
system=board
tag_latency=10
tags=board.cache_hierarchy.l2cache.tags
tgts_per_mshr=12
warmup_percentage=0
write_allocator=Null
write_buffers=8
writeback_clean=false
cpu_side=board.cache_hierarchy.l2bus.mem_side_ports[0]
mem_side=board.cache_hierarchy.membus.cpu_side_ports[5]

[board.cache_hierarchy.l2cache.power_state]
type=PowerState
clk_gate_bins=20
clk_gate_max=1000000000000
clk_gate_min=1000
default_state=UNDEFINED
eventq_index=0
leaders=
possible_states=

[board.cache_hierarchy.l2cache.prefetcher]
type=StridePrefetcher
children=power_state table_indexing_policy table_replacement_policy
block_size=64
cache_snoop=false
clk_domain=board.clk_domain
confidence_counter_bits=3
confidence_threshold=50
degree=4
distance=0
eventq_index=0
initial_confidence=4
latency=1
max_prefetch_requests_with_pending_translation=32
on_data=true
on_inst=false
on_miss=false
on_read=true
on_write=true
page_bytes=4096
power_model=
power_state=board.cache_hierarchy.l2cache.prefetcher.power_state
prefetch_on_access=false
prefetch_on_pf_hit=true
queue_filter=true
queue_size=32
queue_squash=true
sys=board
table_assoc=4
table_entries=64
table_indexing_policy=board.cache_hierarchy.l2cache.prefetcher.table_indexing_policy
table_replacement_policy=board.cache_hierarchy.l2cache.prefetcher.table_replacement_policy
tag_prefetch=true
throttle_control_percentage=0
use_cache_line_address=true
use_requestor_id=true
use_virtual_addresses=false

[board.cache_hierarchy.l2cache.prefetcher.power_state]
type=PowerState
clk_gate_bins=20
clk_gate_max=1000000000000
clk_gate_min=1000
default_state=UNDEFINED
eventq_index=0
leaders=
possible_states=

[board.cache_hierarchy.l2cache.prefetcher.table_indexing_policy]
type=StridePrefetcherHashedSetAssociative
assoc=4
entry_size=1
eventq_index=0
size=64

[board.cache_hierarchy.l2cache.prefetcher.table_replacement_policy]
type=RandomRP
eventq_index=0

[board.cache_hierarchy.l2cache.replacement_policy]
type=LRURP
eventq_index=0

[board.cache_hierarchy.l2cache.tags]
type=BaseSetAssoc
children=indexing_policy power_state
assoc=16
block_size=64
clk_domain=board.clk_domain
entry_size=64
eventq_index=0
indexing_policy=board.cache_hierarchy.l2cache.tags.indexing_policy
partitioning_manager=Null
power_model=
power_state=board.cache_hierarchy.l2cache.tags.power_state
replacement_policy=board.cache_hierarchy.l2cache.replacement_policy
sequential_access=false
size=8388608
system=board
tag_latency=10
warmup_percentage=0
